[TITLE]
Scenario: Present_69 DMA EPS 
Date: 17-07-2019 16:42:22 

[JUNCTIONS]
;ID              	Elev        		Demand      	Pattern         
 815             	734.169982910156	0           	                	;
 816             	729.31      		0           	                	;
 817             	742.328735351563	0           	                	;
 819             	740.192504882813	0           	                	;
 820             	740.250549316406	0           	                	;
 821             	742.782897949219	0           	                	;
 822             	760.606872558594	45.833	DEMAND           	                	;DMA 0610 
 823             	740.878662109375	0           	                	;
 824             	740.14      		15.741		DEMAND     	                	;DMA 1112 
 825             	740.14      		32.176		DEMAND     	                	; DMA 1200 
 828             	736.8       		26.62		DEMAND     	                	;DMA 0911A
 829             	734.590576171875	0           	                	;
 875             	732.690002441406	0           	                	;
 876             	724.059997558594	0           	                	;
 877             	716.570007324219	0           	                	;
 878             	715.650024414063	0           	                	;
 879             	716.030029296875	0           	                	;
 880             	718.549987792969	0           	                	;
 881             	720.880004882813	0           	                	;
 882             	720.679992675781	0           	                	;
 883             	718.049987792969	0           	                	;
 884             	715.969970703125	0           	                	;
 885             	716.789978027344	0           	                	;
 886             	722.542846679688	0           	                	;
 887             	730.000610351562	0           	                	;
 888             	724.310119628906	0           	                	;
 889             	721.27001953125		0           	                	;
 890             	726.679992675781	0           	                	;
 891             	732.02001953125		0           	                	;
 892             	731.02001953125		0           	                	;
 893             	732.859985351563	0           	                	;
 894             	743.059997558594	0           	                	;
 895             	745.9       		0           	                	;
 896             	742.489990234375	0           	                	;
 897             	735.320007324219	0           	                	;
 898             	738.580017089844	0           	                	;
 899             	742.200012207031	0           	                	;
 900             	740.200012207031	0           	                	;
 901             	744.510009765625	0           	                	;
 902             	732.329284667969	0           	                	;
 903             	731.816467285156	0           	                	;
 905             	740.8134765625		0           	                	;
 906             	740.14      		0           	                	;
 907             	736.8       		0           	                	;
 908             	762.99      		0           	                	;
 909             	754.639221191406	0           	                	;
 910             	735.266052246094	0           	                	;
 911             	737.117492675781	26.620			         		 	;DD_DMA 0911B
 1682            	761         		0           	                	;
 1683            	762         		0           	                	;
 1684            	761         		0           	                	;
 1685            	754.4       		0           	                	;
 1686            	750.26      		27.199			DEMAND          	                	;
 1687            	762.39      		0           	                	;
 1688            	744         		36.572			DEMAND         	                	;
 1690            	757         		0           	                	;
 1691            	755         		0           	                	;
 1692            	754.9       		0           	                	;
 1693            	741.47      		0           	                	;
 1694            	776.04      		0           	                	;
 1695            	754.7       		0           	                	;
 1722            	764         		19.907			DEMAND          	                	;
 1788            	751         		0           	                	;
 1791            	762.159832088415	0           	                	;
 1817            	754         		0           	                	;
 1819            	736.724     		0           	                	;
 1830            	736.72      		0           	                	;
 1845            	736.724     		0           	                	;
 1850            	761.7       		23.148			  			;
 1855            	790.61      		0           	                	;
 1857            	789         		0           	                	;
 1860            	805         		0           	                	;
 1862            	763         		0           	                	;
 1865            	776.258     		0           	                	;
 1867            	764         		0           	                	;
 1874            	790         		0           	                	;
 1877            	790.94      		0           	                	;
 1879            	767.58      		0           	                	;
 1932            	762.176908557878	0           	                	;
 1935            	764         		5.787			 		          	;
 1940            	775.98      		17.361				        	  	;
 1954            	745.6       		0           	                	;
 1988            	740.192652379881	0           	                	;
 2006            	763.709383343528	0           	                	;
 2009            	766.28      		0           	                	;
 2217            	741.47      		32.705			DEMAND      	                	;
 2227            	754.04      		34.838			DEMAND              	                	;
 2234            	754.7       		21.296			DEMAND      	                	;
 2245            	754.4       		23.727			DEMAND      	                	;
 2263            	766.28      		31.713			DEMAND              	                	;
 2317            	754         		34.722			DEMAND      	                	;
 2325            	776.26      		23.958			DEMAND      	                	;
 2333            	801         		47.454			DEMAND      	                	;
 2341            	790.94      		31.481		       	DEMAND              	                	;
 2349            	790.61      		30.903			DEMAND      	                	;
 933-A           	760.635986328125	0           	                	;
 933-B           	760.635986328125	0           	                	;
 934-A           	758.798461914063	0           	                	;
 934-B           	758.798461914063	0           	                	;
 935-A           	740.14      		0           	                	;
 935-B           	740.14      		0           	                	;
 936-A           	740.14      		0           	                	;
 936-B           	740.14      		0           	                	;
 1882-A          	763.099297409417	0           	                	;
 1882-B          	763.099297409417	0           	                	;
 1942-A          	761.8       		0           	                	;
 1942-B          	761.8       		0           	                	;
 2222-A          	741.47      		0           	                	;
 2222-B          	741.47      		0           	                	;
 2229-A          	754.04      		0           	                	;
 2229-B          	754.04      		0           	                	;
 2240-A          	754.7       		0           	                	;
 2240-B          	754.7       		0           	                	;
 2247-A          	750         		0           	                	;
 2247-B          	750         		0           	                	;
 2296-A          	762         		0           	                	;
 2296-B          	762         		0           	                	;
 2305-A          	766.28      		0           	                	;
 2305-B          	766.28      		0           	                	;
 2322-A          	368.933608427226	0           	                	;
 2322-B          	368.933608427226	0           	                	;
 2330-A          	533.315689585231	0           	                	;
 2330-B          	533.315689585231	0           	                	;
 2338-A          	802.83912701541		0           	                	;
 2338-B          	802.83912701541		0           	                	;
 2346-A          	790.94      		0           	                	;
 2346-B          	790.94      		0           	                	;
 2354-A          	790.61      		0           	                	;
 2354-B          	790.61      		0           	                	;
 944-A           	731.82      		0           	                	;
 944-B           	731.82      		0           	                	;
 945-A           	731.82      		0           	                	;
 945-B           	731.82      		0           	                	;
 946-A           	731.82      		0           	                	;
 946-B           	731.82      		0           	                	;
 1945-A          	738.55854023725		0           	                	;
 1945-B          	738.55854023725		0           	                	;
 927-A           	731.82      		0           	                	;
 927-B           	731.82      		0           	                	;
 928-A           	731.82      		0           	                	;
 928-B           	731.82      		0           	                	;
 929-A           	731.82      		0           	                	;
 929-B           	731.82      		0           	                	;
 1679-A          	760         		0           	                	;
 1679-B          	760         		0           	                	;
 1680-A          	760         		0           	                	;
 1680-B          	760         		0           	                	;
 1681-A          	760         		0           	                	;
 1681-B          	760         		0           	                	;
 1870-A          	760.83      		0           	                	;
 1870-B          	760.83      		0           	                	;
 1               	734         		-589.701     		           	;

[RESERVOIRS]
;ID              	Head        	Pattern         

[TANKS]
;ID              	Elevation   	InitLevel   	MinLevel    	MaxLevel    	Diameter    	MinVol      	VolCurve
 916             	770         	2.70000000000016	0           	7.00000000000011	18          	0.00283168463686774	                	;DMA 0610 
 917             	751.8       	2.9000000000002	0           	7           	13.5        	0.00283168463686774	                	;DMA 0911A
 918             	749.5       	2.00000000000011	0           	5.63999999999999	15          	0.00283168463686774	                	;DMA 1112 
 919             	755.14      	2.65999999999997	0           	6.80000000000018	16          	0.00283168463686774	                	; DMA 1200 
 1674            	761.39      	1.61000000000001	0           	4           	59.7082132144185	0.00283168463686774	                	;
 1675            	780.39      	3           	0           	4           	25.2        	0.00283168463686774	                	;
 1854            	760.83      	1.17000000000007	0.170000000000073	3.47000000000003	47.8730736481719	0.00283168463686774	                	;
 2215            	756.47      	1           	0           	4           	22          	0.00283168463686774	                	;
 2225            	769.04      	2.46000000000004	0           	7           	17          	0.00283168463686774	                	;
 2232            	765.1       	2.39999999999998	0           	6.69999999999993	14          	0.00283168463686774	                	;
 2243            	768.7       	2.29999999999984	0           	5.99999999999989	15          	0.00283168463686774	                	;
 2261            	778.28      	2.72000000000003	0           	6.76800000000003	15          	0.00283168463686774	                	;
 2319            	764         	2           	0           	5.99999999999989	19          	0.00283168463686774	                	;
 2327            	788.26      	2.03999999999996	0           	7           	15          	0.00283168463686774	                	;
 2335            	810         	0.999999999999886	0           	3.09999999999991	50.4626504404032	0.00283168463686774	                	;
 2343            	800.44      	2.25999999999999	0           	4           	18          	0.00283168463686774	                	;
 2351            	800.61      	0.889999999999986	0           	1.99000000000001	26          	0.00283168463686774	                	;

[PIPES]
;ID              	Node1           	Node2           	Length      	Diameter    	Roughness   	MinorLoss   	Status
 974             	829             	821             	945.110828218732	527.8       	110         	0           	Open  	;
 975             	820             	823             	85.7146882044881	427         	110         	0           	Open  	;
 979             	927-B           	944-A           	1.46234325588887	300         	110         	0           	Open  	;
 980             	944-B           	815             	12.5004905164346	300         	110         	0           	Open  	;
 981             	928-B           	945-A           	1.8912190859624	300         	110         	0           	Open  	;
 982             	945-B           	815             	10.9339693567625	300         	110         	0           	Open  	;
 983             	929-B           	946-A           	3.041710068284	300         	110         	0           	Open  	;
 984             	946-B           	815             	11.3809630373783	300         	110         	0           	Open  	;
 987             	916             	822             	6.27917371729985	250         	130         	0           	Open  	;
 988             	933-B           	916             	6.41651706937272	250         	130         	0           	Open  	;
 989             	917             	828             	9.40261539694281	322.8       	140         	0           	Open  	;
 990             	934-B           	917             	7.56118542159704	322.8       	140         	0           	Open  	;
 991             	918             	824             	13.125545492408	152.40000000061	130         	0           	Open  	;
 992             	935-B           	918             	7.15215291663178	152.40000000061	130         	0           	Open  	;
 993             	919             	825             	5.72960946129865	350         	130         	0           	Open  	;
 994             	936-B           	919             	4.64709906790268	350         	130         	0           	Open  	;
 1045            	815             	875             	73.8647865220582	1124        	110         	0           	Open  	;
 1046            	875             	876             	221.603221063287	1124        	110         	0           	Open  	;
 1047            	876             	877             	68.6684643904034	1124        	110         	0           	Open  	;
 1048            	877             	878             	317         	1124        	110         	0           	Open  	;
 1049            	878             	879             	291.413898763374	1124        	110         	0           	Open  	;
 1050            	879             	880             	350         	1124        	110         	0           	Open  	;
 1051            	880             	881             	294.362054784859	1124        	110         	0           	Open  	;
 1052            	881             	882             	197.519084707473	1124        	110         	0           	Open  	;
 1053            	882             	883             	117.60132810346	1124        	110         	0           	Open  	;
 1054            	883             	884             	295.913398879148	1124        	110         	0           	Open  	;
 1055            	884             	885             	330         	1124        	110         	0           	Open  	;
 1057            	886             	816             	224.854610315125	1124        	110         	0           	Open  	;
 1059            	887             	888             	292.133683669941	1023        	110         	0           	Open  	;
 1060            	888             	889             	452.787210394255	1023        	110         	0           	Open  	;
 1061            	889             	890             	258.998797136395	1023        	110         	0           	Open  	;
 1062            	890             	891             	373.334360587001	1023        	110         	0           	Open  	;
 1063            	891             	892             	280.317275010075	1023        	110         	0           	Open  	;
 1064            	892             	893             	219.588320763398	1023        	110         	0           	Open  	;
 1065            	893             	894             	220.321113451081	1023        	110         	0           	Open  	;
 1066            	894             	895             	232.836142922645	1023        	110         	0           	Open  	;
 1068            	896             	897             	306.691543323466	1023        	110         	0           	Open  	;
 1069            	897             	898             	302.805527781569	1023        	110         	0           	Open  	;
 1070            	898             	900             	485.495299850859	1023        	110         	0           	Open  	;
 1071            	900             	899             	208.06304512382	1023        	110         	0           	Open  	;
 1072            	899             	901             	152.45663790956	1023        	110         	0           	Open  	;
 1073            	901             	902             	213.308537969933	1023        	110         	0           	Open  	;
 1074            	902             	903             	339.60685189574	1023        	110         	0           	Open  	;
 1078            	823             	905             	41.3686707621662	350         	110         	0           	Open  	;
 1079            	905             	936-A           	2.57865137054011	350         	130         	0           	Open  	;
 1080            	823             	906             	49.5018548774593	300         	110         	0           	Open  	;
 1081            	906             	935-A           	4.66104501072522	152.40000000061	130         	0           	Open  	;
 1083            	907             	934-A           	1.54436266121064	322.8       	140         	0           	Open  	;
 1085            	908             	933-A           	1.74829296007874	250         	130         	0           	Open  	;
 1086            	817             	909             	805.210218008776	875         	110         	0           	Open  	;
 1087            	909             	1684            	259.585936435572	875         	110         	0           	Open  	;
 1089            	820             	910             	1779.6443493885	476.8       	110         	0           	Open  	;
 1090            	910             	829             	47.8347904763748	476.8       	110         	0           	Open  	;
 1091            	910             	911             	79.1409006061878	322.8       	110         	0           	Open  	;
 1646            	816             	887             	341.159923669283	1023        	110         	0           	Open  	;
 1655            	816             	819             	1419.48954476094	623.2       	110         	0           	Open  	;
 1661            	829             	907             	716.882009519447	322.8       	110         	0           	Open  	;
 1664            	821             	908             	236.664513581151	250         	110         	0           	Open  	;
 1697            	1687            	1683            	7.44421410660842	500         	110         	0           	Open  	;
 1698            	1687            	1679-B          	27.141815172462	500         	110         	0           	Open  	;
 1699            	1687            	1680-B          	26.8399750579166	500         	110         	0           	Open  	;
 1700            	1681-B          	1687            	27.0101621440198	500         	110         	0           	Open  	;
 1701            	1682            	1674            	10.2879746226401	875         	110         	0           	Open  	;
 1702            	1674            	1680-A          	14.5317934868798	500         	110         	0           	Open  	;
 1703            	1674            	1679-A          	15.0718269816401	500         	110         	0           	Open  	;
 1704            	1674            	1681-A          	15.3242138808492	500         	110         	0           	Open  	;
 1708            	1692            	1694            	65.1307539940017	250         	110         	0           	Open  	;
 1710            	1691            	1695            	148.451977893732	200         	110         	0           	Open  	;
 1711            	1691            	1692            	160.016900195291	475.2       	110         	0           	Open  	;
 1713            	1675            	1690            	513.66948447161	526.2       	110         	0           	Open  	;
 1714            	1674            	1688            	590.696696632994	475.2       	110         	0           	Open  	;
 1715            	1674            	1686            	658.04502140267	475.2       	110         	0           	Open  	;
 1716            	1690            	1691            	672.052185268988	526.2       	110         	0           	Open  	;
 1723            	1675            	1722            	20          	300         	110         	0           	Open  	;
 1789            	1675            	1788            	1559.68559082526	373.2       	110         	0           	Open  	;
 1792            	1692            	1791            	1161.83139907302	373.2       	110         	0           	Open  	;
 1818            	1788            	1817            	1102.19696330622	373.2       	110         	0           	Open  	;
 1820            	903             	1819            	171.441162067381	1023        	110         	0           	Open  	;
 1821            	1819            	817             	213.721685164176	875         	110         	0           	Open  	;
 1847            	1845            	1830            	230.424102373967	875         	110         	0           	Open  	;
 1851            	1845            	1850            	689.166279041946	373.2       	110         	0           	Open  	;
 1861            	1857            	1860            	1976.31959705791	476.8       	110         	0           	Open  	;
 1864            	1862            	1857            	1234.46469389265	623.8       	110         	0           	Open  	;
 1869            	1867            	1865            	1630.83321874529	350         	110         	0           	Open  	;
 1871            	1854            	1870-A          	61.9575055339093	623         	140         	0           	Open  	;
 1872            	1870-B          	1862            	133.555657728151	623         	140         	0           	Open  	;
 1875            	1857            	1874            	207.333930375756	573.2       	110         	0           	Open  	;
 1876            	1874            	1855            	601.279508125994	350         	110         	0           	Open  	;
 1878            	1874            	1877            	35          	350         	110         	0           	Open  	;
 1880            	1830            	1879            	3635.52921472498	875         	110         	0           	Open  	;
 1883            	1879            	1882-A          	12.9438534020496	875         	110         	0           	Open  	;
 1884            	1882-B          	1854            	26.1624641084115	875         	110         	0           	Open  	;
 1933            	1791            	1932            	2.73328365669332	373.2       	110         	0           	Open  	;
 1934            	1932            	1693            	206.891694993198	373.2       	110         	0           	Open  	;
 1936            	1932            	1935            	153.4250577085	122.4       	110         	0           	Open  	;
 1941            	1954            	1940            	1860        	476.8       	110         	0           	Open  	;
 1943            	1684            	1942-A          	23.7094070947798	875         	110         	0           	Open  	;
 1944            	1942-B          	1682            	48.4525494108749	875         	110         	0           	Open  	;
 1946            	1819            	1945-A          	88.1458942010781	875         	110         	0           	Open  	;
 1947            	1945-B          	1845            	2181.24472932914	875         	110         	0           	Open  	;
 1955            	895             	1954            	215.401821179819	1023        	110         	0           	Open  	;
 1956            	1954            	896             	92.4724162396898	1023        	110         	0           	Open  	;
 1989            	819             	1988            	2.22136040185	475.2       	140         	0           	Open  	;
 1990            	1988            	820             	876.81484321067	475.2       	140         	0           	Open  	;
 2007            	1862            	2006            	440.840548844398	623.8       	110         	0           	Open  	;
 2008            	2006            	1867            	180.601373730165	623.8       	110         	0           	Open  	;
 2010            	2006            	2009            	396.613518430368	300         	110         	0           	Open  	;
 2218            	2215            	2217            	9.08492955126913	152.40000000061	130         	0           	Open  	;
 2223            	1693            	2222-A          	4.47271514452372	373.2       	130         	0           	Open  	;
 2224            	2222-B          	2215            	4.20239162799074	373.2       	130         	0           	Open  	;
 2228            	2225            	2227            	9.61890068576693	152.40000000061	130         	0           	Open  	;
 2230            	1694            	2229-A          	5.14088020186338	250         	130         	0           	Open  	;
 2231            	2229-B          	2225            	7.5472520867116	250         	130         	0           	Open  	;
 2235            	2232            	2234            	12.1743861520486	200         	130         	0           	Open  	;
 2241            	1695            	2240-A          	5.21074353361734	200         	130         	0           	Open  	;
 2242            	2240-B          	2232            	5.97247452027269	200         	130         	0           	Open  	;
 2246            	2243            	2245            	14.2178802620378	152.40000000061	130         	0           	Open  	;
 2248            	1685            	2247-A          	8.13777903728514	152.40000000061	130         	0           	Open  	;
 2249            	2247-B          	2243            	13.5105670136169	152.40000000061	130         	0           	Open  	;
 2264            	2261            	2263            	34.7701920193652	300         	130         	0           	Open  	;
 2297            	1683            	2296-A          	4.61417041106392	500         	110         	0           	Open  	;
 2298            	2296-B          	1675            	2.21936519540948	500         	110         	0           	Open  	;
 2306            	2009            	2305-A          	27.0248907854723	300         	130         	0           	Open  	;
 2307            	2305-B          	2261            	11.3691867363081	300         	130         	0           	Open  	;
 2321            	2319            	2317            	12.3154351605729	373.2       	130         	0           	Open  	;
 2323            	1817            	2322-A          	25.2015726485079	373.2       	130         	0           	Open  	;
 2324            	2322-B          	2319            	11.8273622716217	373.2       	130         	0           	Open  	;
 2329            	2327            	2325            	25.102331164615	350         	130         	0           	Open  	;
 2331            	1865            	2330-A          	21.2909863629542	350         	130         	0           	Open  	;
 2332            	2330-B          	2327            	18.2498048447694	350         	130         	0           	Open  	;
 2337            	2335            	2333            	108.209111920951	476.8       	130         	0           	Open  	;
 2339            	1860            	2338-A          	47.3012915966905	476.8       	130         	0           	Open  	;
 2340            	2338-B          	2335            	40.2583047961008	476.8       	130         	0           	Open  	;
 2345            	2343            	2341            	50.2547361424493	350         	130         	0           	Open  	;
 2347            	1877            	2346-A          	28.7727699168647	350         	130         	0           	Open  	;
 2348            	2346-B          	2343            	20.9256157615915	350         	130         	0           	Open  	;
 2353            	2351            	2349            	44.851110251515	350         	130         	0           	Open  	;
 2355            	1855            	2354-A          	13.627845057699	350         	130         	0           	Open  	;
 2356            	2354-B          	2351            	13.7706433210766	350         	130         	0           	Open  	;
 2514            	1690            	1685            	233.602548709605	150         	110         	0           	Open  	;
 2               	927-A           	1               	7.22        	300         	110         	0           	Open  	;
 3               	928-A           	1               	6.9         	300         	110         	0           	Open  	;
 4               	929-A           	1               	1000        	300         	110         	0           	Open  	;
 1               	885             	886             	490         	1124        	100         	0           	Open  	;

[PUMPS]
;ID              	Node1           	Node2           	Parameters