[TITLE]
Scenario: Present_69 DMA EPS 
Date: 17-07-2019 16:42:22 

[JUNCTIONS]
;ID              	Elev        	Demand      	Pattern         
 808             	665.400024414063	0           	                	;
 809             	695.400024414062	0           	                	;
 810             	691.900024414063	0           	                	;
 811             	683.489990234375	0           	                	;
 812             	735.299987792969	0           	                	;
 813             	732.52001953125	0           	                	;
 814             	747.539978027344	0           	                	;
 815             	734.169982910156	0           	                	;
 816             	729.31      	0           	                	;
 817             	742.328735351563	0           	                	;
 819             	740.192504882813	0           	                	;
 820             	740.250549316406	0           	                	;
 821             	742.782897949219	0           	                	;
 822             	760.606872558594	0           	                	;DMA 0610 
 823             	740.878662109375	0           	                	;
 824             	740.14      		0  	;DMA 1112 
 825             	740.14      		0  	; DMA 1200 
 828             	736.8       		0  	;DMA 0911A
 829             	734.590576171875	0           	                	;
 830             	663.210021972656	0           	                	;
 831             	663.210021972656	0           	                	;
 832             	671.510009765625	0           	                	;
 833             	682.200012207031	0           	                	;
 834             	684.419982910156	0           	                	;
 835             	690.739990234375	0           	                	;
 836             	691.950012207031	0           	                	;
 837             	677.409973144531	0           	                	;
 838             	680.840026855469	0           	                	;
 839             	681.400024414062	0           	                	;
 840             	688.080017089844	0           	                	;
 841             	697.530029296875	0           	                	;
 842             	702.880004882813	0           	                	;
 843             	710.369995117188	0           	                	;
 844             	697.880004882813	0           	                	;
 845             	698.450012207031	0           	                	;
 846             	715.75      	0           	                	;
 847             	718.630004882813	0           	                	;
 848             	724.669982910156	0           	                	;
 849             	733.960021972656	0           	                	;
 850             	727.52001953125	0           	                	;
 851             	728.130004882813	0           	                	;
 852             	725.640014648438	0           	                	;
 853             	730.809997558594	0           	                	;
 854             	732.049987792969	0           	                	;
 855             	734.789978027344	0           	                	;
 856             	730.349975585938	0           	                	;
 857             	718.330017089844	0           	                	;
 858             	721.429992675781	0           	                	;
 859             	745.929992675781	0           	                	;
 860             	747.909973144531	0           	                	;
 861             	747.799987792969	0           	                	;
 862             	748.280029296875	0           	                	;
 863             	747.75      	0           	                	;
 864             	745.580017089844	0           	                	;
 865             	742.059997558594	0           	                	;
 866             	735.179992675781	0           	                	;
 867             	733.690002441406	0           	                	;
 868             	736.820007324219	0           	                	;
 869             	733.27001953125	0           	                	;
 870             	731.760009765625	0           	                	;
 871             	723.330017089844	0           	                	;
 872             	724.659973144531	0           	                	;
 873             	732.460021972656	0           	                	;
 874             	736.059997558594	0           	                	;
 875             	732.690002441406	0           	                	;
 876             	724.059997558594	0           	                	;
 877             	716.570007324219	0           	                	;
 878             	715.650024414063	0           	                	;
 879             	716.030029296875	0           	                	;
 880             	718.549987792969	0           	                	;
 881             	720.880004882813	0           	                	;
 882             	720.679992675781	0           	                	;
 883             	718.049987792969	0           	                	;
 884             	715.969970703125	0           	                	;
 885             	716.789978027344	0           	                	;
 886             	722.542846679688	0           	                	;
 887             	730.000610351562	0           	                	;
 888             	724.310119628906	0           	                	;
 889             	721.27001953125	0           	                	;
 890             	726.679992675781	0           	                	;
 891             	732.02001953125	0           	                	;
 892             	731.02001953125	0           	                	;
 893             	732.859985351563	0           	                	;
 894             	743.059997558594	0           	                	;
 895             	745.9       	0           	                	;
 896             	742.489990234375	0           	                	;
 897             	735.320007324219	0           	                	;
 898             	738.580017089844	0           	                	;
 899             	742.200012207031	0           	                	;
 900             	740.200012207031	0           	                	;
 901             	744.510009765625	0           	                	;
 902             	732.329284667969	0           	                	;
 903             	731.816467285156	0           	                	;
 904             	676.830017089844	0           	                	;
 905             	740.8134765625	0           	                	;
 906             	740.14      	0           	                	;
 907             	736.8       	0           	                	;
 908             	762.99      	0           	                	;
 909             	754.639221191406	0           	                	;
 910             	735.266052246094	0           	                	;
 911             	737.117492675781	26.6203703703704	SUPPLY             	;DD_DMA 0911B
 1682            	761         	0           	                	;
 1683            	762         	0           	                	;
 1684            	761         	0           	                	;
 1685            	754.4       	0           	                	;
 1686            	750.26      	0	             			;
 1687            	762.39      	0           	                	;
 1688            	744             0		             		;
 1690            	757         	0           	                	;
 1691            	755         	0           	                	;
 1692            	754.9       	0           	                	;
 1693            	741.47      	0           	                	;
 1694            	776.04      	0           	                	;
 1695            	754.7       	0           	                	;
 1722            	764         	0           	                	;
 1788            	751         	0           	                	;
 1791            	762.159832088415	0           	                	;
 1817            	754         	0           	                	;
 1819            	736.724     	0           	                	;
 1830            	736.72      	0           	                	;
 1845            	736.724     	0           	                	;
 1850            	761.7       	23.1481481481481	SUPPLY             	;
 1855            	790.61      	0           	                	;
 1857            	789         	0           	                	;
 1860            	805         	0           	                	;
 1862            	763         	0           	                	;
 1865            	776.258     	0           	                	;
 1867            	764         	0           	                	;
 1874            	790         	0           	                	;
 1877            	790.94      	0           	                	;
 1879            	767.58      	0           	                	;
 1923            	748         	46.2962962962963	321             	;
 1932            	762.176908557878	0           	                	;
 1935            	764         	5.78703703703704	CONST               	;
 1940            	775.98      	17.3611111111111	SUPPLY             	;
 1954            	745.6       	0           	                	;
 1988            	740.192652379881	0           	                	;
 2006            	763.709383343528	0           	                	;
 2009            	766.28      	0           	                	;
 2217            	741.47       	0		             	;
 2227            	754.04      	0     				;
 2234            	754.7       	0            			;
 2245            	754.4       	0            			;
 2263            	766.28      	0     				;
 2317            	754         	0            			;
 2325            	776.26      	0            			;
 2333            	801         	0 	                	;
 2341            	790.94      	0           	                	;
 2349            	790.61      	0           	                	;
 2557            	695.065551757813	0           	                	;
 930-A           	695.22119140625	0           	                	;
 930-B           	695.22119140625	0           	                	;
 931-A           	690.72216796875	0           	                	;
 931-B           	690.72216796875	0           	                	;
 932-A           	734.841796875	0           	                	;
 932-B           	734.841796875	0           	                	;
 933-A           	760.635986328125	0           	                	;
 933-B           	760.635986328125	0           	                	;
 934-A           	758.798461914063	0           	                	;
 934-B           	758.798461914063	0           	                	;
 935-A           	740.14      	0           	                	;
 935-B           	740.14      	0           	                	;
 936-A           	740.14      	0           	                	;
 936-B           	740.14      	0           	                	;
 1882-A          	763.099297409417	0           	                	;
 1882-B          	763.099297409417	0           	                	;
 1942-A          	761.8       	0           	                	;
 1942-B          	761.8       	0           	                	;
 2222-A          	741.47      	0           	                	;
 2222-B          	741.47      	0           	                	;
 2229-A          	754.04      	0           	                	;
 2229-B          	754.04      	0           	                	;
 2240-A          	754.7       	0           	                	;
 2240-B          	754.7       	0           	                	;
 2247-A          	750         	0           	                	;
 2247-B          	750         	0           	                	;
 2296-A          	762         	0           	                	;
 2296-B          	762         	0           	                	;
 2305-A          	766.28      	0           	                	;
 2305-B          	766.28      	0           	                	;
 2322-A          	368.933608427226	0           	                	;
 2322-B          	368.933608427226	0           	                	;
 2330-A          	533.315689585231	0           	                	;
 2330-B          	533.315689585231	0           	                	;
 2338-A          	802.83912701541	0           	                	;
 2338-B          	802.83912701541	0           	                	;
 2346-A          	575.41207716847	0           	                	;
 2346-B          	575.41207716847	0           	                	;
 2354-A          	790.61      	0           	                	;
 2354-B          	790.61      	0           	                	;
 938-A           	0           	0           	                	;
 938-B           	0           	0           	                	;
 939-A           	0           	0           	                	;
 939-B           	0           	0           	                	;
 940-A           	0           	0           	                	;
 940-B           	0           	0           	                	;
 941-A           	683.18      	0           	                	;
 941-B           	683.18      	0           	                	;
 942-A           	683.18      	0           	                	;
 942-B           	683.18      	0           	                	;
 943-A           	683.18      	0           	                	;
 943-B           	683.18      	0           	                	;
 944-A           	731.82      	0           	                	;
 944-B           	731.82      	0           	                	;
 945-A           	731.82      	0           	                	;
 945-B           	731.82      	0           	                	;
 946-A           	731.82      	0           	                	;
 946-B           	731.82      	0           	                	;
 1945-A          	738.55854023725	0           	                	;
 1945-B          	738.55854023725	0           	                	;
 921-A           	665.1       	0           	                	;
 921-B           	665.1       	0           	                	;
 922-A           	665.1       	0           	                	;
 922-B           	665.1       	0           	                	;
 923-A           	665.1       	0           	                	;
 923-B           	665.1       	0           	                	;
 924-A           	683.18      	0           	                	;
 924-B           	683.18      	0           	                	;
 925-A           	683.18      	0           	                	;
 925-B           	683.18      	0           	                	;
 926-A           	683.18      	0           	                	;
 926-B           	683.18      	0           	                	;
 927-A           	731.82      	0           	                	;
 927-B           	731.82      	0           	                	;
 928-A           	731.82      	0           	                	;
 928-B           	731.82      	0           	                	;
 929-A           	731.82      	0           	                	;
 929-B           	731.82      	0           	                	;
 1679-A          	760         	0           	                	;
 1679-B          	760         	0           	                	;
 1680-A          	760         	0           	                	;
 1680-B          	760         	0           	                	;
 1681-A          	760         	0           	                	;
 1681-B          	760         	0           	                	;
 1870-A          	760.83      	0           	                	;
 1870-B          	760.83      	0           	                	;

[RESERVOIRS]
;ID              	Head        	Pattern         
 912             	645.1       	                	;
 913             	683.18      	                	;
 914             	731.82      	                	;

[TANKS]
;ID              	Elevation   	InitLevel   	MinLevel    	MaxLevel    	Diameter    	MinVol      	VolCurve
 916             	751.3       	2.70000000000016	0           	7.00000000000011	18          	0.00283168463686774	                	;DMA 0610 
 917             	751.8       	2.9000000000002	0           	7           	13.5        	0.00283168463686774	                	;DMA 0911A
 918             	739.5       	2.00000000000011	0           	5.63999999999999	15          	0.00283168463686774	                	;DMA 1112 
 919             	755.14      	2.65999999999997	0           	6.80000000000018	16          	0.00283168463686774	                	; DMA 1200 
 1674            	761.39      	1.61000000000001	0           	4           	59.7082132144185	0.00283168463686774	                	;
 1675            	780.39      	3           	0           	4           	25.2        	0.00283168463686774	                	;
 1854            	760.83      	1.17000000000007	0.170000000000073	3.47000000000003	47.8730736481719	0.00283168463686774	                	;
 2215            	756.47      	1           	0           	4           	22          	0.00283168463686774	                	;
 2225            	769.04      	2.46000000000004	0           	7           	17          	0.00283168463686774	                	;
 2232            	765.1       	2.39999999999998	0           	6.69999999999993	14          	0.00283168463686774	                	;
 2243            	768.7       	2.29999999999984	0           	5.99999999999989	15          	0.00283168463686774	                	;
 2261            	778.28      	2.72000000000003	0           	6.76800000000003	15          	0.00283168463686774	                	;
 2319            	754         	2           	0           	5.99999999999989	19          	0.00283168463686774	                	;
 2327            	788.26      	2.03999999999996	0           	7           	15          	0.00283168463686774	                	;
 2335            	801         	0.999999999999886	0           	3.09999999999991	50.4626504404032	0.00283168463686774	                	;
 2343            	800.44      	2.25999999999999	0           	4           	18          	0.00283168463686774	                	;
 2351            	790.61      	0.889999999999986	0           	1.99000000000001	26          	0.00283168463686774	                	;

[PIPES]
;ID              	Node1           	Node2           	Length      	Diameter    	Roughness   	MinorLoss   	Status
 947             	809             	930-A           	4.9984914892194	1175        	110         	0           	Open  	;
 948             	930-B           	2557            	4.34448017733535	1175        	110         	0           	Open  	;
 949             	912             	921-A           	10          	500         	110         	0           	Open  	;
 950             	912             	922-A           	10          	500         	110         	0           	Open  	;
 951             	912             	923-A           	10          	500         	110         	0           	Open  	;
 952             	921-B           	938-A           	2.14258208793247	500         	110         	0           	Open  	;
 953             	938-B           	808             	10          	500         	110         	0           	Open  	;
 954             	922-B           	939-A           	2.38791570300561	500         	110         	0           	Open  	;
 955             	939-B           	808             	10          	500         	110         	0           	Open  	;
 956             	923-B           	940-A           	2.82439533176468	500         	110         	0           	Open  	;
 957             	940-B           	808             	10          	500         	110         	0           	Open  	;
 958             	2557            	810             	299.595872863738	1175        	110         	0           	Open  	;
 959             	810             	931-A           	11.0674643344567	1175        	110         	0           	Open  	;
 960             	931-B           	913             	10.6605178636776	1175        	110         	0           	Open  	;
 961             	913             	924-A           	10          	600         	110         	0           	CV    	;
 962             	913             	925-A           	10          	600         	110         	0           	Open  	;
 963             	913             	926-A           	10          	600         	110         	0           	CV    	;
 964             	924-B           	941-A           	2.66537218345625	500         	110         	0           	Open  	;
 965             	941-B           	811             	10          	500         	110         	0           	Open  	;
 966             	925-B           	942-A           	2.6256403247338	500         	110         	0           	Open  	;
 967             	942-B           	811             	10          	500         	110         	0           	Open  	;
 968             	926-B           	943-A           	2.86715335121698	500         	110         	0           	Open  	;
 969             	943-B           	811             	10          	500         	110         	0           	Open  	;
 970             	812             	932-A           	20.5347311228927	1124        	110         	0           	Open  	;
 971             	932-B           	914             	21.2467409145567	1124        	110         	0           	Open  	;
 974             	829             	821             	945.110828218732	527.8       	110         	0           	Open  	;
 975             	820             	823             	85.7146882044881	427         	110         	0           	Open  	;
 976             	914             	927-A           	7.22129706439341	300         	110         	0           	Open  	;
 977             	914             	928-A           	6.5228702597016	300         	110         	0           	Open  	;
 978             	914             	929-A           	7.25691063056916	300         	110         	0           	Open  	;
 979             	927-B           	944-A           	1.46234325588887	300         	110         	0           	Open  	;
 980             	944-B           	815             	12.5004905164346	300         	110         	0           	Open  	;
 981             	928-B           	945-A           	1.8912190859624	300         	110         	0           	Open  	;
 982             	945-B           	815             	10.9339693567625	300         	110         	0           	Open  	;
 983             	929-B           	946-A           	3.041710068284	300         	110         	0           	Open  	;
 984             	946-B           	815             	11.3809630373783	300         	110         	0           	Open  	;
 987             	916             	822             	6.27917371729985	250         	130         	0           	Open  	;
 988             	933-B           	916             	6.41651706937272	250         	130         	0           	Open  	;
 989             	917             	828             	9.40261539694281	322.8       	140         	0           	Open  	;
 990             	934-B           	917             	7.56118542159704	322.8       	140         	0           	Open  	;
 991             	918             	824             	13.125545492408	152.40000000061	130         	0           	Open  	;
 992             	935-B           	918             	7.15215291663178	152.40000000061	130         	0           	Open  	;
 993             	919             	825             	5.72960946129865	152.40000000061	130         	0           	Open  	;
 994             	936-B           	919             	4.64709906790268	152.40000000061	130         	0           	Open  	;
 997             	808             	831             	134.209945287265	1175        	110         	0           	Open  	;
 998             	831             	830             	59.5964518741082	1175        	110         	0           	Open  	;
 999             	830             	832             	323         	1175        	110         	0           	Open  	;
 1000            	833             	834             	174.684292944264	1175        	110         	0           	Open  	;
 1001            	834             	835             	203.682210969679	1175        	110         	0           	Open  	;
 1002            	835             	836             	60.1118865146211	1175        	110         	0           	Open  	;
 1003            	836             	809             	211.906602156598	1175        	110         	0           	Open  	;
 1004            	811             	837             	190.651061151228	1124        	110         	0           	Open  	;
 1005            	837             	838             	306.387337187749	1124        	110         	0           	Open  	;
 1006            	838             	839             	275.507063685293	1124        	110         	0           	Open  	;
 1007            	839             	840             	247.436597647895	1124        	110         	0           	Open  	;
 1008            	840             	841             	254.696243214262	1124        	110         	0           	Open  	;
 1009            	841             	842             	181.077005881805	1124        	110         	0           	Open  	;
 1010            	842             	843             	322.697979400841	1124        	110         	0           	Open  	;
 1011            	843             	844             	410.40508436806	1124        	110         	0           	Open  	;
 1012            	844             	845             	379.635204004865	1124        	110         	0           	Open  	;
 1013            	845             	846             	491.703666027093	1124        	110         	0           	Open  	;
 1014            	846             	847             	262.901713698223	1124        	110         	0           	Open  	;
 1015            	847             	848             	306.142330994492	1124        	110         	0           	Open  	;
 1016            	848             	849             	360.163061073658	1124        	110         	0           	Open  	;
 1017            	849             	850             	372.207154493708	1124        	110         	0           	Open  	;
 1018            	850             	851             	181.572902293932	1124        	110         	0           	Open  	;
 1019            	851             	852             	314.432124502225	1124        	110         	0           	Open  	;
 1020            	852             	853             	312.567779457437	1124        	110         	0           	Open  	;
 1021            	853             	854             	322.817303809451	1124        	110         	0           	Open  	;
 1022            	854             	855             	345.448677813881	1124        	110         	0           	Open  	;
 1023            	855             	856             	247.477330753094	1124        	110         	0           	Open  	;
 1024            	856             	857             	368.313354564697	1124        	110         	0           	Open  	;
 1025            	857             	858             	368.024866431864	1124        	110         	0           	Open  	;
 1026            	858             	813             	259.020522742042	1124        	110         	0           	Open  	;
 1027            	813             	859             	286.244042284878	1124        	110         	0           	Open  	;
 1028            	859             	860             	69.7626953872729	1124        	110         	0           	Open  	;
 1029            	860             	861             	246.154981077829	1124        	110         	0           	Open  	;
 1030            	861             	862             	303.562752070161	1124        	110         	0           	Open  	;
 1031            	862             	814             	201.051180083111	1124        	110         	0           	Open  	;
 1032            	814             	863             	122.682338235617	1124        	110         	0           	Open  	;
 1033            	863             	864             	305.143659662163	1124        	110         	0           	Open  	;
 1034            	864             	865             	296.112009329713	1124        	110         	0           	Open  	;
 1035            	865             	866             	295.059259354423	1124        	110         	0           	Open  	;
 1036            	866             	867             	319.401049279919	1124        	110         	0           	Open  	;
 1037            	867             	868             	345.199060913299	1124        	110         	0           	Open  	;
 1038            	868             	869             	193.580526002143	1124        	110         	0           	Open  	;
 1039            	869             	870             	70.1946308471743	1124        	110         	0           	Open  	;
 1040            	870             	871             	308.006224276286	1124        	110         	0           	Open  	;
 1041            	871             	872             	294.062317968118	1124        	110         	0           	Open  	;
 1042            	872             	873             	318.823127046251	1124        	110         	0           	Open  	;
 1043            	873             	874             	314.508362367788	1124        	110         	0           	Open  	;
 1044            	874             	812             	473.984872358129	1124        	110         	0           	Open  	;
 1045            	815             	875             	73.8647865220582	1124        	110         	0           	Open  	;
 1046            	875             	876             	221.603221063287	1124        	110         	0           	Open  	;
 1047            	876             	877             	68.6684643904034	1124        	110         	0           	Open  	;
 1048            	877             	878             	317         	1124        	110         	0           	Open  	;
 1049            	878             	879             	291.413898763374	1124        	110         	0           	Open  	;
 1050            	879             	880             	350         	1124        	110         	0           	Open  	;
 1051            	880             	881             	294.362054784859	1124        	110         	0           	Open  	;